/ File opened for write Mon Oct 26 16:21:24 2015.
 
*** LISTING "default_id" FILES IN DIRECTORY:
    .
 
    default_id.lok
Copyright(c) 1988-2015, Fluent Inc. All rights reserved.
http://www.fluent.com
 
Gambit incorporates Simulation Modeling Suite(TM) software by Simmetrix Inc.
 
Portions of this software are owned by Parametric Technology Corporation.
Copyright(c) 2002. All Rights Reserved.
 
Portions of this software are owned by Unigraphics Solutions Corporation or its subsidiaries.
Copyright(c) 2004. All Rights Reserved.
 
Spatial Indexing Library version 0.81b (beta) provided under GNU Lesser General Public License
(http://www.gnu.org/copyleft/lesser.html)
 
Command> face create width 6.28318530718 height 6.28318530718 xyplane rectangle
Created face: face.1
Command> undo
Undone to: face create width 6.28318530718 height 6.28318530718 xyplane rectangl.  
Command> face create width 6.28318530718 height 6.28318530718 offset 3.14159265359 \
  3.14159265359 0 xyplane rectangle
Created face: face.1
Command> default set "MESH.NODES.QUAD" numeric 9
Command> face mesh "face.1" map intervals 8
Mesh generated for face face.1:   mesh faces = 64.
Command> solver select "Generic"
Command> physics create "1" btype "ELEMENT_SIDE" edge "edge.1"
Created Boundary entity: 1
Command> physics create "2" btype "ELEMENT_SIDE" edge "edge.3"
Created Boundary entity: 2
Command> physics create "3" btype "ELEMENT_SIDE" edge "edge.4"
Created Boundary entity: 3
Command> physics create "4" btype "ELEMENT_SIDE" edge "edge.2"
Created Boundary entity: 4
Command> physics create "5" ctype "FLUID" face "face.1"
Created Continuum entity: 5
Command> save name \
  "/home/eaulisa/FEMuS/NumPDE/femus/applications/WillmoreSurface/input/gambit/square.dbs"
Command> export gambit \
  "/home/eaulisa/FEMuS/NumPDE/femus/applications/WillmoreSurface/input/square.neu"
 
Writing 289 nodes, 64 elements, 1 group and 4 bc sets
to GAMBIT Neutral file /home/eaulisa/FEMuS/NumPDE/femus/applications/WillmoreSurface/input/square.neu.
Done writing Neutral file.
