/ File opened for write Mon Apr 18 15:11:34 2016.
 
*** LISTING "default_id" FILES IN DIRECTORY:
    .
 
    default_id.lok
Copyright(c) 1988-2016, Fluent Inc. All rights reserved.
http://www.fluent.com
 
Gambit incorporates Simulation Modeling Suite(TM) software by Simmetrix Inc.
 
Portions of this software are owned by Parametric Technology Corporation.
Copyright(c) 2002. All Rights Reserved.
 
Portions of this software are owned by Unigraphics Solutions Corporation or its subsidiaries.
Copyright(c) 2004. All Rights Reserved.
 
Spatial Indexing Library version 0.81b (beta) provided under GNU Lesser General Public License
(http://www.gnu.org/copyleft/lesser.html)
 
Command> volume create width 1 depth 1 height 1 brick
Created volume: volume.1
Command> default set "MESH.NODES.HEX" numeric 27
Command> volume mesh "volume.1" map intervals 5
Mesh generated for volume volume.1:   mesh volumes = 125.
Command> solver select "Generic"
Command> physics create "1" btype "ELEMENT_SIDE" face "face.1" "face.2" "face.3" \
  "face.4" "face.5" "face.6"
Created Boundary entity: 1
Command> physics create "5" ctype "FLUID" volume "volume.1"
Created Continuum entity: 5
Command> save name \
  "/home/eaulisa/FEMuS/MyFEMuS/applications/ISM/ex1/input/gambit/cubeHex.dbs"
Command> export gambit \
  "/home/eaulisa/FEMuS/MyFEMuS/applications/ISM/ex1/input/cubeHex.neu"
 
Writing 1331 nodes, 125 elements, 1 group and 1 bc set
to GAMBIT Neutral file /home/eaulisa/FEMuS/MyFEMuS/applications/ISM/ex1/input/cubeHex.neu.
Done writing Neutral file.
